
---------- Begin Simulation Statistics ----------
sim_seconds                                  1.581627                       # Number of seconds simulated
sim_ticks                                1581627388500                       # Number of ticks simulated
final_tick                               1581627388500                       # Number of ticks from beginning of simulation (restored from checkpoints and never reset)
sim_freq                                 1000000000000                       # Frequency of simulated ticks
host_inst_rate                                 292741                       # Simulator instruction rate (inst/s)
host_op_rate                                   379957                       # Simulator op (including micro ops) rate (op/s)
host_tick_rate                              926015240                       # Simulator tick rate (ticks/s)
host_mem_usage                                 604404                       # Number of bytes of host memory used
host_seconds                                  1707.99                       # Real time elapsed on the host
sim_insts                                   500000000                       # Number of instructions simulated
sim_ops                                     648963385                       # Number of ops (including micro ops) simulated
system.voltage_domain.voltage                       1                       # Voltage in Volts
system.clk_domain.clock                          1000                       # Clock period in ticks
system.mem_ctrls.pwrStateResidencyTicks::UNDEFINED 1581627388500                       # Cumulative time (in ticks) in various power states
system.mem_ctrls.bytes_read::cpu.inst           34880                       # Number of bytes read from this memory
system.mem_ctrls.bytes_read::cpu.data       457430208                       # Number of bytes read from this memory
system.mem_ctrls.bytes_read::total          457465088                       # Number of bytes read from this memory
system.mem_ctrls.bytes_inst_read::cpu.inst        34880                       # Number of instructions bytes read from this memory
system.mem_ctrls.bytes_inst_read::total         34880                       # Number of instructions bytes read from this memory
system.mem_ctrls.bytes_written::writebacks    456375680                       # Number of bytes written to this memory
system.mem_ctrls.bytes_written::total       456375680                       # Number of bytes written to this memory
system.mem_ctrls.num_reads::cpu.inst              545                       # Number of read requests responded to by this memory
system.mem_ctrls.num_reads::cpu.data          7147347                       # Number of read requests responded to by this memory
system.mem_ctrls.num_reads::total             7147892                       # Number of read requests responded to by this memory
system.mem_ctrls.num_writes::writebacks       7130870                       # Number of write requests responded to by this memory
system.mem_ctrls.num_writes::total            7130870                       # Number of write requests responded to by this memory
system.mem_ctrls.bw_read::cpu.inst              22053                       # Total read bandwidth from this memory (bytes/s)
system.mem_ctrls.bw_read::cpu.data          289214901                       # Total read bandwidth from this memory (bytes/s)
system.mem_ctrls.bw_read::total             289236954                       # Total read bandwidth from this memory (bytes/s)
system.mem_ctrls.bw_inst_read::cpu.inst         22053                       # Instruction read bandwidth from this memory (bytes/s)
system.mem_ctrls.bw_inst_read::total            22053                       # Instruction read bandwidth from this memory (bytes/s)
system.mem_ctrls.bw_write::writebacks       288548165                       # Write bandwidth from this memory (bytes/s)
system.mem_ctrls.bw_write::total            288548165                       # Write bandwidth from this memory (bytes/s)
system.mem_ctrls.bw_total::writebacks       288548165                       # Total bandwidth to/from this memory (bytes/s)
system.mem_ctrls.bw_total::cpu.inst             22053                       # Total bandwidth to/from this memory (bytes/s)
system.mem_ctrls.bw_total::cpu.data         289214901                       # Total bandwidth to/from this memory (bytes/s)
system.mem_ctrls.bw_total::total            577785118                       # Total bandwidth to/from this memory (bytes/s)
system.mem_ctrls.readReqs                     7147892                       # Number of read requests accepted
system.mem_ctrls.writeReqs                    7130870                       # Number of write requests accepted
system.mem_ctrls.readBursts                   7147892                       # Number of DRAM read bursts, including those serviced by the write queue
system.mem_ctrls.writeBursts                  7130870                       # Number of DRAM write bursts, including those merged in the write queue
system.mem_ctrls.bytesReadDRAM              457465088                       # Total number of bytes read from DRAM
system.mem_ctrls.bytesReadWrQ                       0                       # Total number of bytes read from write queue
system.mem_ctrls.bytesWritten               456374464                       # Total number of bytes written to DRAM
system.mem_ctrls.bytesReadSys               457465088                       # Total read bytes from the system interface side
system.mem_ctrls.bytesWrittenSys            456375680                       # Total written bytes from the system interface side
system.mem_ctrls.servicedByWrQ                      0                       # Number of DRAM read bursts serviced by the write queue
system.mem_ctrls.mergedWrBursts                     0                       # Number of DRAM write bursts merged with an existing one
system.mem_ctrls.neitherReadNorWriteReqs            0                       # Number of requests that are neither read nor write
system.mem_ctrls.perBankRdBursts::0            446964                       # Per bank write bursts
system.mem_ctrls.perBankRdBursts::1            446742                       # Per bank write bursts
system.mem_ctrls.perBankRdBursts::2            446901                       # Per bank write bursts
system.mem_ctrls.perBankRdBursts::3            446731                       # Per bank write bursts
system.mem_ctrls.perBankRdBursts::4            446765                       # Per bank write bursts
system.mem_ctrls.perBankRdBursts::5            446779                       # Per bank write bursts
system.mem_ctrls.perBankRdBursts::6            446694                       # Per bank write bursts
system.mem_ctrls.perBankRdBursts::7            446629                       # Per bank write bursts
system.mem_ctrls.perBankRdBursts::8            446570                       # Per bank write bursts
system.mem_ctrls.perBankRdBursts::9            446727                       # Per bank write bursts
system.mem_ctrls.perBankRdBursts::10           446617                       # Per bank write bursts
system.mem_ctrls.perBankRdBursts::11           446738                       # Per bank write bursts
system.mem_ctrls.perBankRdBursts::12           446785                       # Per bank write bursts
system.mem_ctrls.perBankRdBursts::13           446692                       # Per bank write bursts
system.mem_ctrls.perBankRdBursts::14           446866                       # Per bank write bursts
system.mem_ctrls.perBankRdBursts::15           446692                       # Per bank write bursts
system.mem_ctrls.perBankWrBursts::0            445848                       # Per bank write bursts
system.mem_ctrls.perBankWrBursts::1            445694                       # Per bank write bursts
system.mem_ctrls.perBankWrBursts::2            445812                       # Per bank write bursts
system.mem_ctrls.perBankWrBursts::3            445682                       # Per bank write bursts
system.mem_ctrls.perBankWrBursts::4            445715                       # Per bank write bursts
system.mem_ctrls.perBankWrBursts::5            445753                       # Per bank write bursts
system.mem_ctrls.perBankWrBursts::6            445626                       # Per bank write bursts
system.mem_ctrls.perBankWrBursts::7            445584                       # Per bank write bursts
system.mem_ctrls.perBankWrBursts::8            445525                       # Per bank write bursts
system.mem_ctrls.perBankWrBursts::9            445644                       # Per bank write bursts
system.mem_ctrls.perBankWrBursts::10           445557                       # Per bank write bursts
system.mem_ctrls.perBankWrBursts::11           445674                       # Per bank write bursts
system.mem_ctrls.perBankWrBursts::12           445645                       # Per bank write bursts
system.mem_ctrls.perBankWrBursts::13           445616                       # Per bank write bursts
system.mem_ctrls.perBankWrBursts::14           445828                       # Per bank write bursts
system.mem_ctrls.perBankWrBursts::15           445648                       # Per bank write bursts
system.mem_ctrls.numRdRetry                         0                       # Number of times read queue was full causing retry
system.mem_ctrls.numWrRetry                         0                       # Number of times write queue was full causing retry
system.mem_ctrls.totGap                  1580765013500                       # Total gap between requests
system.mem_ctrls.readPktSize::0                     0                       # Read request sizes (log2)
system.mem_ctrls.readPktSize::1                     0                       # Read request sizes (log2)
system.mem_ctrls.readPktSize::2                     0                       # Read request sizes (log2)
system.mem_ctrls.readPktSize::3                     0                       # Read request sizes (log2)
system.mem_ctrls.readPktSize::4                     0                       # Read request sizes (log2)
system.mem_ctrls.readPktSize::5                     0                       # Read request sizes (log2)
system.mem_ctrls.readPktSize::6               7147892                       # Read request sizes (log2)
system.mem_ctrls.writePktSize::0                    0                       # Write request sizes (log2)
system.mem_ctrls.writePktSize::1                    0                       # Write request sizes (log2)
system.mem_ctrls.writePktSize::2                    0                       # Write request sizes (log2)
system.mem_ctrls.writePktSize::3                    0                       # Write request sizes (log2)
system.mem_ctrls.writePktSize::4                    0                       # Write request sizes (log2)
system.mem_ctrls.writePktSize::5                    0                       # Write request sizes (log2)
system.mem_ctrls.writePktSize::6              7130870                       # Write request sizes (log2)
system.mem_ctrls.rdQLenPdf::0                 7147892                       # What read queue length does an incoming req see
system.mem_ctrls.rdQLenPdf::1                       0                       # What read queue length does an incoming req see
system.mem_ctrls.rdQLenPdf::2                       0                       # What read queue length does an incoming req see
system.mem_ctrls.rdQLenPdf::3                       0                       # What read queue length does an incoming req see
system.mem_ctrls.rdQLenPdf::4                       0                       # What read queue length does an incoming req see
system.mem_ctrls.rdQLenPdf::5                       0                       # What read queue length does an incoming req see
system.mem_ctrls.rdQLenPdf::6                       0                       # What read queue length does an incoming req see
system.mem_ctrls.rdQLenPdf::7                       0                       # What read queue length does an incoming req see
system.mem_ctrls.rdQLenPdf::8                       0                       # What read queue length does an incoming req see
system.mem_ctrls.rdQLenPdf::9                       0                       # What read queue length does an incoming req see
system.mem_ctrls.rdQLenPdf::10                      0                       # What read queue length does an incoming req see
system.mem_ctrls.rdQLenPdf::11                      0                       # What read queue length does an incoming req see
system.mem_ctrls.rdQLenPdf::12                      0                       # What read queue length does an incoming req see
system.mem_ctrls.rdQLenPdf::13                      0                       # What read queue length does an incoming req see
system.mem_ctrls.rdQLenPdf::14                      0                       # What read queue length does an incoming req see
system.mem_ctrls.rdQLenPdf::15                      0                       # What read queue length does an incoming req see
system.mem_ctrls.rdQLenPdf::16                      0                       # What read queue length does an incoming req see
system.mem_ctrls.rdQLenPdf::17                      0                       # What read queue length does an incoming req see
system.mem_ctrls.rdQLenPdf::18                      0                       # What read queue length does an incoming req see
system.mem_ctrls.rdQLenPdf::19                      0                       # What read queue length does an incoming req see
system.mem_ctrls.rdQLenPdf::20                      0                       # What read queue length does an incoming req see
system.mem_ctrls.rdQLenPdf::21                      0                       # What read queue length does an incoming req see
system.mem_ctrls.rdQLenPdf::22                      0                       # What read queue length does an incoming req see
system.mem_ctrls.rdQLenPdf::23                      0                       # What read queue length does an incoming req see
system.mem_ctrls.rdQLenPdf::24                      0                       # What read queue length does an incoming req see
system.mem_ctrls.rdQLenPdf::25                      0                       # What read queue length does an incoming req see
system.mem_ctrls.rdQLenPdf::26                      0                       # What read queue length does an incoming req see
system.mem_ctrls.rdQLenPdf::27                      0                       # What read queue length does an incoming req see
system.mem_ctrls.rdQLenPdf::28                      0                       # What read queue length does an incoming req see
system.mem_ctrls.rdQLenPdf::29                      0                       # What read queue length does an incoming req see
system.mem_ctrls.rdQLenPdf::30                      0                       # What read queue length does an incoming req see
system.mem_ctrls.rdQLenPdf::31                      0                       # What read queue length does an incoming req see
system.mem_ctrls.wrQLenPdf::0                       1                       # What write queue length does an incoming req see
system.mem_ctrls.wrQLenPdf::1                       1                       # What write queue length does an incoming req see
system.mem_ctrls.wrQLenPdf::2                       1                       # What write queue length does an incoming req see
system.mem_ctrls.wrQLenPdf::3                       1                       # What write queue length does an incoming req see
system.mem_ctrls.wrQLenPdf::4                       1                       # What write queue length does an incoming req see
system.mem_ctrls.wrQLenPdf::5                       1                       # What write queue length does an incoming req see
system.mem_ctrls.wrQLenPdf::6                       1                       # What write queue length does an incoming req see
system.mem_ctrls.wrQLenPdf::7                       1                       # What write queue length does an incoming req see
system.mem_ctrls.wrQLenPdf::8                       1                       # What write queue length does an incoming req see
system.mem_ctrls.wrQLenPdf::9                       1                       # What write queue length does an incoming req see
system.mem_ctrls.wrQLenPdf::10                      1                       # What write queue length does an incoming req see
system.mem_ctrls.wrQLenPdf::11                      1                       # What write queue length does an incoming req see
system.mem_ctrls.wrQLenPdf::12                      1                       # What write queue length does an incoming req see
system.mem_ctrls.wrQLenPdf::13                      1                       # What write queue length does an incoming req see
system.mem_ctrls.wrQLenPdf::14                      1                       # What write queue length does an incoming req see
system.mem_ctrls.wrQLenPdf::15                 378370                       # What write queue length does an incoming req see
system.mem_ctrls.wrQLenPdf::16                 380786                       # What write queue length does an incoming req see
system.mem_ctrls.wrQLenPdf::17                 398232                       # What write queue length does an incoming req see
system.mem_ctrls.wrQLenPdf::18                 398232                       # What write queue length does an incoming req see
system.mem_ctrls.wrQLenPdf::19                 398231                       # What write queue length does an incoming req see
system.mem_ctrls.wrQLenPdf::20                 398232                       # What write queue length does an incoming req see
system.mem_ctrls.wrQLenPdf::21                 398231                       # What write queue length does an incoming req see
system.mem_ctrls.wrQLenPdf::22                 398231                       # What write queue length does an incoming req see
system.mem_ctrls.wrQLenPdf::23                 398231                       # What write queue length does an incoming req see
system.mem_ctrls.wrQLenPdf::24                 398231                       # What write queue length does an incoming req see
system.mem_ctrls.wrQLenPdf::25                 398231                       # What write queue length does an incoming req see
system.mem_ctrls.wrQLenPdf::26                 398231                       # What write queue length does an incoming req see
system.mem_ctrls.wrQLenPdf::27                 398231                       # What write queue length does an incoming req see
system.mem_ctrls.wrQLenPdf::28                 398231                       # What write queue length does an incoming req see
system.mem_ctrls.wrQLenPdf::29                 398231                       # What write queue length does an incoming req see
system.mem_ctrls.wrQLenPdf::30                 398231                       # What write queue length does an incoming req see
system.mem_ctrls.wrQLenPdf::31                 398231                       # What write queue length does an incoming req see
system.mem_ctrls.wrQLenPdf::32                 398231                       # What write queue length does an incoming req see
system.mem_ctrls.wrQLenPdf::33                      0                       # What write queue length does an incoming req see
system.mem_ctrls.wrQLenPdf::34                      0                       # What write queue length does an incoming req see
system.mem_ctrls.wrQLenPdf::35                      0                       # What write queue length does an incoming req see
system.mem_ctrls.wrQLenPdf::36                      0                       # What write queue length does an incoming req see
system.mem_ctrls.wrQLenPdf::37                      0                       # What write queue length does an incoming req see
system.mem_ctrls.wrQLenPdf::38                      0                       # What write queue length does an incoming req see
system.mem_ctrls.wrQLenPdf::39                      0                       # What write queue length does an incoming req see
system.mem_ctrls.wrQLenPdf::40                      0                       # What write queue length does an incoming req see
system.mem_ctrls.wrQLenPdf::41                      0                       # What write queue length does an incoming req see
system.mem_ctrls.wrQLenPdf::42                      0                       # What write queue length does an incoming req see
system.mem_ctrls.wrQLenPdf::43                      0                       # What write queue length does an incoming req see
system.mem_ctrls.wrQLenPdf::44                      0                       # What write queue length does an incoming req see
system.mem_ctrls.wrQLenPdf::45                      0                       # What write queue length does an incoming req see
system.mem_ctrls.wrQLenPdf::46                      0                       # What write queue length does an incoming req see
system.mem_ctrls.wrQLenPdf::47                      0                       # What write queue length does an incoming req see
system.mem_ctrls.wrQLenPdf::48                      0                       # What write queue length does an incoming req see
system.mem_ctrls.wrQLenPdf::49                      0                       # What write queue length does an incoming req see
system.mem_ctrls.wrQLenPdf::50                      0                       # What write queue length does an incoming req see
system.mem_ctrls.wrQLenPdf::51                      0                       # What write queue length does an incoming req see
system.mem_ctrls.wrQLenPdf::52                      0                       # What write queue length does an incoming req see
system.mem_ctrls.wrQLenPdf::53                      0                       # What write queue length does an incoming req see
system.mem_ctrls.wrQLenPdf::54                      0                       # What write queue length does an incoming req see
system.mem_ctrls.wrQLenPdf::55                      0                       # What write queue length does an incoming req see
system.mem_ctrls.wrQLenPdf::56                      0                       # What write queue length does an incoming req see
system.mem_ctrls.wrQLenPdf::57                      0                       # What write queue length does an incoming req see
system.mem_ctrls.wrQLenPdf::58                      0                       # What write queue length does an incoming req see
system.mem_ctrls.wrQLenPdf::59                      0                       # What write queue length does an incoming req see
system.mem_ctrls.wrQLenPdf::60                      0                       # What write queue length does an incoming req see
system.mem_ctrls.wrQLenPdf::61                      0                       # What write queue length does an incoming req see
system.mem_ctrls.wrQLenPdf::62                      0                       # What write queue length does an incoming req see
system.mem_ctrls.wrQLenPdf::63                      0                       # What write queue length does an incoming req see
system.mem_ctrls.bytesPerActivate::samples      1774257                       # Bytes accessed per row activation
system.mem_ctrls.bytesPerActivate::mean    515.054782                       # Bytes accessed per row activation
system.mem_ctrls.bytesPerActivate::gmean   330.671196                       # Bytes accessed per row activation
system.mem_ctrls.bytesPerActivate::stdev   407.062837                       # Bytes accessed per row activation
system.mem_ctrls.bytesPerActivate::0-127       155776      8.78%      8.78% # Bytes accessed per row activation
system.mem_ctrls.bytesPerActivate::128-255       633816     35.72%     44.50% # Bytes accessed per row activation
system.mem_ctrls.bytesPerActivate::256-383       100748      5.68%     50.18% # Bytes accessed per row activation
system.mem_ctrls.bytesPerActivate::384-511        73486      4.14%     54.32% # Bytes accessed per row activation
system.mem_ctrls.bytesPerActivate::512-639        63378      3.57%     57.89% # Bytes accessed per row activation
system.mem_ctrls.bytesPerActivate::640-767        58506      3.30%     61.19% # Bytes accessed per row activation
system.mem_ctrls.bytesPerActivate::768-895        53083      2.99%     64.18% # Bytes accessed per row activation
system.mem_ctrls.bytesPerActivate::896-1023        71061      4.01%     68.19% # Bytes accessed per row activation
system.mem_ctrls.bytesPerActivate::1024-1151       564403     31.81%    100.00% # Bytes accessed per row activation
system.mem_ctrls.bytesPerActivate::total      1774257                       # Bytes accessed per row activation
system.mem_ctrls.rdPerTurnAround::samples       398231                       # Reads before turning the bus around for writes
system.mem_ctrls.rdPerTurnAround::mean      17.949100                       # Reads before turning the bus around for writes
system.mem_ctrls.rdPerTurnAround::gmean     17.902254                       # Reads before turning the bus around for writes
system.mem_ctrls.rdPerTurnAround::stdev     22.859897                       # Reads before turning the bus around for writes
system.mem_ctrls.rdPerTurnAround::0-511        398229    100.00%    100.00% # Reads before turning the bus around for writes
system.mem_ctrls.rdPerTurnAround::2048-2559            1      0.00%    100.00% # Reads before turning the bus around for writes
system.mem_ctrls.rdPerTurnAround::13824-14335            1      0.00%    100.00% # Reads before turning the bus around for writes
system.mem_ctrls.rdPerTurnAround::total        398231                       # Reads before turning the bus around for writes
system.mem_ctrls.wrPerTurnAround::samples       398231                       # Writes before turning the bus around for reads
system.mem_ctrls.wrPerTurnAround::mean      17.906318                       # Writes before turning the bus around for reads
system.mem_ctrls.wrPerTurnAround::gmean     17.901154                       # Writes before turning the bus around for reads
system.mem_ctrls.wrPerTurnAround::stdev      0.415365                       # Writes before turning the bus around for reads
system.mem_ctrls.wrPerTurnAround::16            17446      4.38%      4.38% # Writes before turning the bus around for reads
system.mem_ctrls.wrPerTurnAround::17             2416      0.61%      4.99% # Writes before turning the bus around for reads
system.mem_ctrls.wrPerTurnAround::18           378368     95.01%    100.00% # Writes before turning the bus around for reads
system.mem_ctrls.wrPerTurnAround::19                1      0.00%    100.00% # Writes before turning the bus around for reads
system.mem_ctrls.wrPerTurnAround::total        398231                       # Writes before turning the bus around for reads
system.mem_ctrls.totQLat                 117496156250                       # Total ticks spent queuing
system.mem_ctrls.totMemAccLat            251519131250                       # Total ticks spent from burst creation until serviced by the DRAM
system.mem_ctrls.totBusLat                35739460000                       # Total ticks spent in databus transfers
system.mem_ctrls.avgQLat                     16437.88                       # Average queueing delay per DRAM burst
system.mem_ctrls.avgBusLat                    5000.00                       # Average bus latency per DRAM burst
system.mem_ctrls.avgMemAccLat                35187.88                       # Average memory access latency per DRAM burst
system.mem_ctrls.avgRdBW                       289.24                       # Average DRAM read bandwidth in MiByte/s
system.mem_ctrls.avgWrBW                       288.55                       # Average achieved write bandwidth in MiByte/s
system.mem_ctrls.avgRdBWSys                    289.24                       # Average system read bandwidth in MiByte/s
system.mem_ctrls.avgWrBWSys                    288.55                       # Average system write bandwidth in MiByte/s
system.mem_ctrls.peakBW                      12800.00                       # Theoretical peak bandwidth in MiByte/s
system.mem_ctrls.busUtil                         4.51                       # Data bus utilization in percentage
system.mem_ctrls.busUtilRead                     2.26                       # Data bus utilization in percentage for reads
system.mem_ctrls.busUtilWrite                    2.25                       # Data bus utilization in percentage for writes
system.mem_ctrls.avgRdQLen                       1.00                       # Average read queue length when enqueuing
system.mem_ctrls.avgWrQLen                      24.76                       # Average write queue length when enqueuing
system.mem_ctrls.readRowHits                  6309545                       # Number of row buffer hits during reads
system.mem_ctrls.writeRowHits                 6194941                       # Number of row buffer hits during writes
system.mem_ctrls.readRowHitRate                 88.27                       # Row buffer hit rate for reads
system.mem_ctrls.writeRowHitRate                86.87                       # Row buffer hit rate for writes
system.mem_ctrls.avgGap                     110707.43                       # Average gap between requests
system.mem_ctrls.pageHitRate                    87.57                       # Row buffer hit rate, read and write combined
system.mem_ctrls_0.actEnergy               6332837280                       # Energy for activate commands per rank (pJ)
system.mem_ctrls_0.preEnergy               3365982840                       # Energy for precharge commands per rank (pJ)
system.mem_ctrls_0.readEnergy             25519823700                       # Energy for read commands per rank (pJ)
system.mem_ctrls_0.writeEnergy            18613027080                       # Energy for write commands per rank (pJ)
system.mem_ctrls_0.refreshEnergy         72904294320.000015                       # Energy for refresh commands per rank (pJ)
system.mem_ctrls_0.actBackEnergy          85049635020                       # Energy for active background per rank (pJ)
system.mem_ctrls_0.preBackEnergy           5086318560                       # Energy for precharge background per rank (pJ)
system.mem_ctrls_0.actPowerDownEnergy    272320187550                       # Energy for active power-down per rank (pJ)
system.mem_ctrls_0.prePowerDownEnergy     29197554240                       # Energy for precharge power-down per rank (pJ)
system.mem_ctrls_0.selfRefreshEnergy     173926089885                       # Energy for self refresh per rank (pJ)
system.mem_ctrls_0.totalEnergy           692319569925                       # Total energy per rank (pJ)
system.mem_ctrls_0.averagePower            437.726088                       # Core power per rank (mW)
system.mem_ctrls_0.totalIdleTime         1381024081750                       # Total Idle time Per DRAM Rank
system.mem_ctrls_0.memoryStateTime::IDLE   3035915750                       # Time in different power states
system.mem_ctrls_0.memoryStateTime::REF   30907300000                       # Time in different power states
system.mem_ctrls_0.memoryStateTime::SREF 708632644500                       # Time in different power states
system.mem_ctrls_0.memoryStateTime::PRE_PDN  76040762250                       # Time in different power states
system.mem_ctrls_0.memoryStateTime::ACT  165810040250                       # Time in different power states
system.mem_ctrls_0.memoryStateTime::ACT_PDN 597200725750                       # Time in different power states
system.mem_ctrls_1.actEnergy               6335357700                       # Energy for activate commands per rank (pJ)
system.mem_ctrls_1.preEnergy               3367322475                       # Energy for precharge commands per rank (pJ)
system.mem_ctrls_1.readEnergy             25516125180                       # Energy for read commands per rank (pJ)
system.mem_ctrls_1.writeEnergy            18610015140                       # Energy for write commands per rank (pJ)
system.mem_ctrls_1.refreshEnergy         72813942240.000015                       # Energy for refresh commands per rank (pJ)
system.mem_ctrls_1.actBackEnergy          84842882340                       # Energy for active background per rank (pJ)
system.mem_ctrls_1.preBackEnergy           5095556640                       # Energy for precharge background per rank (pJ)
system.mem_ctrls_1.actPowerDownEnergy    272213096520                       # Energy for active power-down per rank (pJ)
system.mem_ctrls_1.prePowerDownEnergy     28961928960                       # Energy for precharge power-down per rank (pJ)
system.mem_ctrls_1.selfRefreshEnergy     174243025560                       # Energy for self refresh per rank (pJ)
system.mem_ctrls_1.totalEnergy           692004314565                       # Total energy per rank (pJ)
system.mem_ctrls_1.averagePower            437.526763                       # Core power per rank (mW)
system.mem_ctrls_1.totalIdleTime         1381453399000                       # Total Idle time Per DRAM Rank
system.mem_ctrls_1.memoryStateTime::IDLE   3069850000                       # Time in different power states
system.mem_ctrls_1.memoryStateTime::REF   30869062000                       # Time in different power states
system.mem_ctrls_1.memoryStateTime::SREF 709907727750                       # Time in different power states
system.mem_ctrls_1.memoryStateTime::PRE_PDN  75427201000                       # Time in different power states
system.mem_ctrls_1.memoryStateTime::ACT  165387373500                       # Time in different power states
system.mem_ctrls_1.memoryStateTime::ACT_PDN 596966174250                       # Time in different power states
system.pwrStateResidencyTicks::UNDEFINED 1581627388500                       # Cumulative time (in ticks) in various power states
system.cpu.branchPred.lookups                18089552                       # Number of BP lookups
system.cpu.branchPred.condPredicted          18089552                       # Number of conditional branches predicted
system.cpu.branchPred.condIncorrect             64453                       # Number of conditional branches incorrect
system.cpu.branchPred.BTBLookups              8164893                       # Number of BTB lookups
system.cpu.branchPred.BTBHits                 8164791                       # Number of BTB hits
system.cpu.branchPred.BTBCorrect                    0                       # Number of correct BTB predictions (this stat may not work properly.
system.cpu.branchPred.BTBHitPct             99.998751                       # BTB Hit Percentage
system.cpu.branchPred.BTBMissPct             0.001249                       # BTB Miss Percentage
system.cpu.branchPred.usedRAS                 1184444                       # Number of times the RAS was used to get a target.
system.cpu.branchPred.RASInCorrect                 28                       # Number of incorrect RAS predictions.
system.cpu.branchPred.indirectLookups               0                       # Number of indirect predictor lookups.
system.cpu.branchPred.indirectHits                  0                       # Number of indirect target hits.
system.cpu.branchPred.indirectMisses                0                       # Number of indirect misses.
system.cpu.branchPredindirectMispredicted            0                       # Number of mispredicted indirect branches.
system.cpu_voltage_domain.voltage                   1                       # Voltage in Volts
system.cpu_clk_domain.clock                       500                       # Clock period in ticks
system.cpu.dtb.walker.pwrStateResidencyTicks::UNDEFINED 1581627388500                       # Cumulative time (in ticks) in various power states
system.cpu.apic_clk_domain.clock                 8000                       # Clock period in ticks
system.cpu.interrupts.pwrStateResidencyTicks::UNDEFINED 1581627388500                       # Cumulative time (in ticks) in various power states
system.cpu.itb.walker.pwrStateResidencyTicks::UNDEFINED 1581627388500                       # Cumulative time (in ticks) in various power states
system.cpu.workload.num_syscalls                  168                       # Number of system calls
system.cpu.pwrStateResidencyTicks::ON    1581627388500                       # Cumulative time (in ticks) in various power states
system.cpu.numCycles                       3163254777                       # number of cpu cycles simulated
system.cpu.numWorkItemsStarted                      0                       # number of work items this cpu started
system.cpu.numWorkItemsCompleted                    0                       # number of work items this cpu completed
system.cpu.committedInsts                   500000000                       # Number of instructions committed
system.cpu.committedOps                     648963385                       # Number of ops (including micro ops) committed
system.cpu.num_int_alu_accesses             648962729                       # Number of integer alu accesses
system.cpu.num_fp_alu_accesses                    848                       # Number of float alu accesses
system.cpu.num_func_calls                     2369347                       # number of times a function call or return occured
system.cpu.num_conditional_control_insts     15707705                       # number of instructions that are conditional controls
system.cpu.num_int_insts                    648962729                       # number of integer instructions
system.cpu.num_fp_insts                           848                       # number of float instructions
system.cpu.num_int_register_reads          1304344855                       # number of times the integer registers were read
system.cpu.num_int_register_writes          560057855                       # number of times the integer registers were written
system.cpu.num_fp_register_reads                 1341                       # number of times the floating registers were read
system.cpu.num_fp_register_writes                 581                       # number of times the floating registers were written
system.cpu.num_cc_register_reads             95274047                       # number of times the CC registers were read
system.cpu.num_cc_register_writes           257707811                       # number of times the CC registers were written
system.cpu.num_mem_refs                     216142387                       # number of memory refs
system.cpu.num_load_insts                   144433138                       # Number of load instructions
system.cpu.num_store_insts                   71709249                       # Number of store instructions
system.cpu.num_idle_cycles                          0                       # Number of idle cycles
system.cpu.num_busy_cycles                 3163254777                       # Number of busy cycles
system.cpu.not_idle_fraction                        1                       # Percentage of non-idle cycles
system.cpu.idle_fraction                            0                       # Percentage of idle cycles
system.cpu.Branches                          18089552                       # Number of branches fetched
system.cpu.predictedBranches                  9349235                       # Number of branches predicted as taken
system.cpu.BranchMispred                        64453                       # Number of branch mispredictions
system.cpu.BranchMispredPercent              0.356300                       # Number of branch mispredictions percent
system.cpu.op_class::No_OpClass                   161      0.00%      0.00% # Class of executed instruction
system.cpu.op_class::IntAlu                 431926301     66.56%     66.56% # Class of executed instruction
system.cpu.op_class::IntMult                   893946      0.14%     66.69% # Class of executed instruction
system.cpu.op_class::IntDiv                        70      0.00%     66.69% # Class of executed instruction
system.cpu.op_class::FloatAdd                     520      0.00%     66.69% # Class of executed instruction
system.cpu.op_class::FloatCmp                       0      0.00%     66.69% # Class of executed instruction
system.cpu.op_class::FloatCvt                       0      0.00%     66.69% # Class of executed instruction
system.cpu.op_class::FloatMult                      0      0.00%     66.69% # Class of executed instruction
system.cpu.op_class::FloatDiv                       0      0.00%     66.69% # Class of executed instruction
system.cpu.op_class::FloatSqrt                      0      0.00%     66.69% # Class of executed instruction
system.cpu.op_class::SimdAdd                        0      0.00%     66.69% # Class of executed instruction
system.cpu.op_class::SimdAddAcc                     0      0.00%     66.69% # Class of executed instruction
system.cpu.op_class::SimdAlu                        0      0.00%     66.69% # Class of executed instruction
system.cpu.op_class::SimdCmp                        0      0.00%     66.69% # Class of executed instruction
system.cpu.op_class::SimdCvt                        0      0.00%     66.69% # Class of executed instruction
system.cpu.op_class::SimdMisc                       0      0.00%     66.69% # Class of executed instruction
system.cpu.op_class::SimdMult                       0      0.00%     66.69% # Class of executed instruction
system.cpu.op_class::SimdMultAcc                    0      0.00%     66.69% # Class of executed instruction
system.cpu.op_class::SimdShift                      0      0.00%     66.69% # Class of executed instruction
system.cpu.op_class::SimdShiftAcc                   0      0.00%     66.69% # Class of executed instruction
system.cpu.op_class::SimdSqrt                       0      0.00%     66.69% # Class of executed instruction
system.cpu.op_class::SimdFloatAdd                   0      0.00%     66.69% # Class of executed instruction
system.cpu.op_class::SimdFloatAlu                   0      0.00%     66.69% # Class of executed instruction
system.cpu.op_class::SimdFloatCmp                   0      0.00%     66.69% # Class of executed instruction
system.cpu.op_class::SimdFloatCvt                   0      0.00%     66.69% # Class of executed instruction
system.cpu.op_class::SimdFloatDiv                   0      0.00%     66.69% # Class of executed instruction
system.cpu.op_class::SimdFloatMisc                  0      0.00%     66.69% # Class of executed instruction
system.cpu.op_class::SimdFloatMult                  0      0.00%     66.69% # Class of executed instruction
system.cpu.op_class::SimdFloatMultAcc               0      0.00%     66.69% # Class of executed instruction
system.cpu.op_class::SimdFloatSqrt                  0      0.00%     66.69% # Class of executed instruction
system.cpu.op_class::MemRead                144433138     22.26%     88.95% # Class of executed instruction
system.cpu.op_class::MemWrite                71709249     11.05%    100.00% # Class of executed instruction
system.cpu.op_class::IprAccess                      0      0.00%    100.00% # Class of executed instruction
system.cpu.op_class::InstPrefetch                   0      0.00%    100.00% # Class of executed instruction
system.cpu.op_class::total                  648963385                       # Class of executed instruction
system.cpu.dcache.tags.pwrStateResidencyTicks::UNDEFINED 1581627388500                       # Cumulative time (in ticks) in various power states
system.cpu.dcache.tags.replacements           7159854                       # number of replacements
system.cpu.dcache.tags.tagsinuse          2047.657941                       # Cycle average of tags in use
system.cpu.dcache.tags.total_refs           208980496                       # Total number of references to valid blocks.
system.cpu.dcache.tags.sampled_refs           7161902                       # Sample count of references to valid blocks.
system.cpu.dcache.tags.avg_refs             29.179469                       # Average number of references to valid blocks.
system.cpu.dcache.tags.warmup_cycle         510853500                       # Cycle when the warmup percentage was hit.
system.cpu.dcache.tags.occ_blocks::cpu.data  2047.657941                       # Average occupied blocks per requestor
system.cpu.dcache.tags.occ_percent::cpu.data     0.999833                       # Average percentage of cache occupancy
system.cpu.dcache.tags.occ_percent::total     0.999833                       # Average percentage of cache occupancy
system.cpu.dcache.tags.occ_task_id_blocks::1024         2048                       # Occupied blocks per task id
system.cpu.dcache.tags.age_task_id_blocks_1024::2           45                       # Occupied blocks per task id
system.cpu.dcache.tags.age_task_id_blocks_1024::3         1995                       # Occupied blocks per task id
system.cpu.dcache.tags.age_task_id_blocks_1024::4            8                       # Occupied blocks per task id
system.cpu.dcache.tags.occ_task_id_percent::1024            1                       # Percentage of cache occupancy per task id
system.cpu.dcache.tags.tag_accesses         439446698                       # Number of tag accesses
system.cpu.dcache.tags.data_accesses        439446698                       # Number of data accesses
system.cpu.dcache.pwrStateResidencyTicks::UNDEFINED 1581627388500                       # Cumulative time (in ticks) in various power states
system.cpu.dcache.ReadReq_hits::cpu.data    143971492                       # number of ReadReq hits
system.cpu.dcache.ReadReq_hits::total       143971492                       # number of ReadReq hits
system.cpu.dcache.WriteReq_hits::cpu.data     65009004                       # number of WriteReq hits
system.cpu.dcache.WriteReq_hits::total       65009004                       # number of WriteReq hits
system.cpu.dcache.demand_hits::cpu.data     208980496                       # number of demand (read+write) hits
system.cpu.dcache.demand_hits::total        208980496                       # number of demand (read+write) hits
system.cpu.dcache.overall_hits::cpu.data    208980496                       # number of overall hits
system.cpu.dcache.overall_hits::total       208980496                       # number of overall hits
system.cpu.dcache.ReadReq_misses::cpu.data       461656                       # number of ReadReq misses
system.cpu.dcache.ReadReq_misses::total        461656                       # number of ReadReq misses
system.cpu.dcache.WriteReq_misses::cpu.data      6700246                       # number of WriteReq misses
system.cpu.dcache.WriteReq_misses::total      6700246                       # number of WriteReq misses
system.cpu.dcache.demand_misses::cpu.data      7161902                       # number of demand (read+write) misses
system.cpu.dcache.demand_misses::total        7161902                       # number of demand (read+write) misses
system.cpu.dcache.overall_misses::cpu.data      7161902                       # number of overall misses
system.cpu.dcache.overall_misses::total       7161902                       # number of overall misses
system.cpu.dcache.ReadReq_miss_latency::cpu.data  40926957500                       # number of ReadReq miss cycles
system.cpu.dcache.ReadReq_miss_latency::total  40926957500                       # number of ReadReq miss cycles
system.cpu.dcache.WriteReq_miss_latency::cpu.data 591465231500                       # number of WriteReq miss cycles
system.cpu.dcache.WriteReq_miss_latency::total 591465231500                       # number of WriteReq miss cycles
system.cpu.dcache.demand_miss_latency::cpu.data 632392189000                       # number of demand (read+write) miss cycles
system.cpu.dcache.demand_miss_latency::total 632392189000                       # number of demand (read+write) miss cycles
system.cpu.dcache.overall_miss_latency::cpu.data 632392189000                       # number of overall miss cycles
system.cpu.dcache.overall_miss_latency::total 632392189000                       # number of overall miss cycles
system.cpu.dcache.ReadReq_accesses::cpu.data    144433148                       # number of ReadReq accesses(hits+misses)
system.cpu.dcache.ReadReq_accesses::total    144433148                       # number of ReadReq accesses(hits+misses)
system.cpu.dcache.WriteReq_accesses::cpu.data     71709250                       # number of WriteReq accesses(hits+misses)
system.cpu.dcache.WriteReq_accesses::total     71709250                       # number of WriteReq accesses(hits+misses)
system.cpu.dcache.demand_accesses::cpu.data    216142398                       # number of demand (read+write) accesses
system.cpu.dcache.demand_accesses::total    216142398                       # number of demand (read+write) accesses
system.cpu.dcache.overall_accesses::cpu.data    216142398                       # number of overall (read+write) accesses
system.cpu.dcache.overall_accesses::total    216142398                       # number of overall (read+write) accesses
system.cpu.dcache.ReadReq_miss_rate::cpu.data     0.003196                       # miss rate for ReadReq accesses
system.cpu.dcache.ReadReq_miss_rate::total     0.003196                       # miss rate for ReadReq accesses
system.cpu.dcache.WriteReq_miss_rate::cpu.data     0.093436                       # miss rate for WriteReq accesses
system.cpu.dcache.WriteReq_miss_rate::total     0.093436                       # miss rate for WriteReq accesses
system.cpu.dcache.demand_miss_rate::cpu.data     0.033135                       # miss rate for demand accesses
system.cpu.dcache.demand_miss_rate::total     0.033135                       # miss rate for demand accesses
system.cpu.dcache.overall_miss_rate::cpu.data     0.033135                       # miss rate for overall accesses
system.cpu.dcache.overall_miss_rate::total     0.033135                       # miss rate for overall accesses
system.cpu.dcache.ReadReq_avg_miss_latency::cpu.data 88652.497747                       # average ReadReq miss latency
system.cpu.dcache.ReadReq_avg_miss_latency::total 88652.497747                       # average ReadReq miss latency
system.cpu.dcache.WriteReq_avg_miss_latency::cpu.data 88275.151614                       # average WriteReq miss latency
system.cpu.dcache.WriteReq_avg_miss_latency::total 88275.151614                       # average WriteReq miss latency
system.cpu.dcache.demand_avg_miss_latency::cpu.data 88299.475335                       # average overall miss latency
system.cpu.dcache.demand_avg_miss_latency::total 88299.475335                       # average overall miss latency
system.cpu.dcache.overall_avg_miss_latency::cpu.data 88299.475335                       # average overall miss latency
system.cpu.dcache.overall_avg_miss_latency::total 88299.475335                       # average overall miss latency
system.cpu.dcache.blocked_cycles::no_mshrs            0                       # number of cycles access was blocked
system.cpu.dcache.blocked_cycles::no_targets            0                       # number of cycles access was blocked
system.cpu.dcache.blocked::no_mshrs                 0                       # number of cycles access was blocked
system.cpu.dcache.blocked::no_targets               0                       # number of cycles access was blocked
system.cpu.dcache.avg_blocked_cycles::no_mshrs          nan                       # average number of cycles each access was blocked
system.cpu.dcache.avg_blocked_cycles::no_targets          nan                       # average number of cycles each access was blocked
system.cpu.dcache.writebacks::writebacks      7145440                       # number of writebacks
system.cpu.dcache.writebacks::total           7145440                       # number of writebacks
system.cpu.dcache.ReadReq_mshr_misses::cpu.data       461656                       # number of ReadReq MSHR misses
system.cpu.dcache.ReadReq_mshr_misses::total       461656                       # number of ReadReq MSHR misses
system.cpu.dcache.WriteReq_mshr_misses::cpu.data      6700246                       # number of WriteReq MSHR misses
system.cpu.dcache.WriteReq_mshr_misses::total      6700246                       # number of WriteReq MSHR misses
system.cpu.dcache.demand_mshr_misses::cpu.data      7161902                       # number of demand (read+write) MSHR misses
system.cpu.dcache.demand_mshr_misses::total      7161902                       # number of demand (read+write) MSHR misses
system.cpu.dcache.overall_mshr_misses::cpu.data      7161902                       # number of overall MSHR misses
system.cpu.dcache.overall_mshr_misses::total      7161902                       # number of overall MSHR misses
system.cpu.dcache.ReadReq_mshr_miss_latency::cpu.data  40465301500                       # number of ReadReq MSHR miss cycles
system.cpu.dcache.ReadReq_mshr_miss_latency::total  40465301500                       # number of ReadReq MSHR miss cycles
system.cpu.dcache.WriteReq_mshr_miss_latency::cpu.data 584764985500                       # number of WriteReq MSHR miss cycles
system.cpu.dcache.WriteReq_mshr_miss_latency::total 584764985500                       # number of WriteReq MSHR miss cycles
system.cpu.dcache.demand_mshr_miss_latency::cpu.data 625230287000                       # number of demand (read+write) MSHR miss cycles
system.cpu.dcache.demand_mshr_miss_latency::total 625230287000                       # number of demand (read+write) MSHR miss cycles
system.cpu.dcache.overall_mshr_miss_latency::cpu.data 625230287000                       # number of overall MSHR miss cycles
system.cpu.dcache.overall_mshr_miss_latency::total 625230287000                       # number of overall MSHR miss cycles
system.cpu.dcache.ReadReq_mshr_miss_rate::cpu.data     0.003196                       # mshr miss rate for ReadReq accesses
system.cpu.dcache.ReadReq_mshr_miss_rate::total     0.003196                       # mshr miss rate for ReadReq accesses
system.cpu.dcache.WriteReq_mshr_miss_rate::cpu.data     0.093436                       # mshr miss rate for WriteReq accesses
system.cpu.dcache.WriteReq_mshr_miss_rate::total     0.093436                       # mshr miss rate for WriteReq accesses
system.cpu.dcache.demand_mshr_miss_rate::cpu.data     0.033135                       # mshr miss rate for demand accesses
system.cpu.dcache.demand_mshr_miss_rate::total     0.033135                       # mshr miss rate for demand accesses
system.cpu.dcache.overall_mshr_miss_rate::cpu.data     0.033135                       # mshr miss rate for overall accesses
system.cpu.dcache.overall_mshr_miss_rate::total     0.033135                       # mshr miss rate for overall accesses
system.cpu.dcache.ReadReq_avg_mshr_miss_latency::cpu.data 87652.497747                       # average ReadReq mshr miss latency
system.cpu.dcache.ReadReq_avg_mshr_miss_latency::total 87652.497747                       # average ReadReq mshr miss latency
system.cpu.dcache.WriteReq_avg_mshr_miss_latency::cpu.data 87275.151614                       # average WriteReq mshr miss latency
system.cpu.dcache.WriteReq_avg_mshr_miss_latency::total 87275.151614                       # average WriteReq mshr miss latency
system.cpu.dcache.demand_avg_mshr_miss_latency::cpu.data 87299.475335                       # average overall mshr miss latency
system.cpu.dcache.demand_avg_mshr_miss_latency::total 87299.475335                       # average overall mshr miss latency
system.cpu.dcache.overall_avg_mshr_miss_latency::cpu.data 87299.475335                       # average overall mshr miss latency
system.cpu.dcache.overall_avg_mshr_miss_latency::total 87299.475335                       # average overall mshr miss latency
system.cpu.dtb_walker_cache.tags.pwrStateResidencyTicks::UNDEFINED 1581627388500                       # Cumulative time (in ticks) in various power states
system.cpu.dtb_walker_cache.tags.replacements            0                       # number of replacements
system.cpu.dtb_walker_cache.tags.tagsinuse            0                       # Cycle average of tags in use
system.cpu.dtb_walker_cache.tags.total_refs            0                       # Total number of references to valid blocks.
system.cpu.dtb_walker_cache.tags.sampled_refs            0                       # Sample count of references to valid blocks.
system.cpu.dtb_walker_cache.tags.avg_refs          nan                       # Average number of references to valid blocks.
system.cpu.dtb_walker_cache.tags.warmup_cycle            0                       # Cycle when the warmup percentage was hit.
system.cpu.dtb_walker_cache.tags.tag_accesses            0                       # Number of tag accesses
system.cpu.dtb_walker_cache.tags.data_accesses            0                       # Number of data accesses
system.cpu.dtb_walker_cache.pwrStateResidencyTicks::UNDEFINED 1581627388500                       # Cumulative time (in ticks) in various power states
system.cpu.dtb_walker_cache.blocked_cycles::no_mshrs            0                       # number of cycles access was blocked
system.cpu.dtb_walker_cache.blocked_cycles::no_targets            0                       # number of cycles access was blocked
system.cpu.dtb_walker_cache.blocked::no_mshrs            0                       # number of cycles access was blocked
system.cpu.dtb_walker_cache.blocked::no_targets            0                       # number of cycles access was blocked
system.cpu.dtb_walker_cache.avg_blocked_cycles::no_mshrs          nan                       # average number of cycles each access was blocked
system.cpu.dtb_walker_cache.avg_blocked_cycles::no_targets          nan                       # average number of cycles each access was blocked
system.cpu.icache.tags.pwrStateResidencyTicks::UNDEFINED 1581627388500                       # Cumulative time (in ticks) in various power states
system.cpu.icache.tags.replacements                10                       # number of replacements
system.cpu.icache.tags.tagsinuse           489.443676                       # Cycle average of tags in use
system.cpu.icache.tags.total_refs           740207700                       # Total number of references to valid blocks.
system.cpu.icache.tags.sampled_refs               546                       # Sample count of references to valid blocks.
system.cpu.icache.tags.avg_refs          1355691.758242                       # Average number of references to valid blocks.
system.cpu.icache.tags.warmup_cycle                 0                       # Cycle when the warmup percentage was hit.
system.cpu.icache.tags.occ_blocks::cpu.inst   489.443676                       # Average occupied blocks per requestor
system.cpu.icache.tags.occ_percent::cpu.inst     0.238986                       # Average percentage of cache occupancy
system.cpu.icache.tags.occ_percent::total     0.238986                       # Average percentage of cache occupancy
system.cpu.icache.tags.occ_task_id_blocks::1024          536                       # Occupied blocks per task id
system.cpu.icache.tags.age_task_id_blocks_1024::4          536                       # Occupied blocks per task id
system.cpu.icache.tags.occ_task_id_percent::1024     0.261719                       # Percentage of cache occupancy per task id
system.cpu.icache.tags.tag_accesses        1480417038                       # Number of tag accesses
system.cpu.icache.tags.data_accesses       1480417038                       # Number of data accesses
system.cpu.icache.pwrStateResidencyTicks::UNDEFINED 1581627388500                       # Cumulative time (in ticks) in various power states
system.cpu.icache.ReadReq_hits::cpu.inst    740207700                       # number of ReadReq hits
system.cpu.icache.ReadReq_hits::total       740207700                       # number of ReadReq hits
system.cpu.icache.demand_hits::cpu.inst     740207700                       # number of demand (read+write) hits
system.cpu.icache.demand_hits::total        740207700                       # number of demand (read+write) hits
system.cpu.icache.overall_hits::cpu.inst    740207700                       # number of overall hits
system.cpu.icache.overall_hits::total       740207700                       # number of overall hits
system.cpu.icache.ReadReq_misses::cpu.inst          546                       # number of ReadReq misses
system.cpu.icache.ReadReq_misses::total           546                       # number of ReadReq misses
system.cpu.icache.demand_misses::cpu.inst          546                       # number of demand (read+write) misses
system.cpu.icache.demand_misses::total            546                       # number of demand (read+write) misses
system.cpu.icache.overall_misses::cpu.inst          546                       # number of overall misses
system.cpu.icache.overall_misses::total           546                       # number of overall misses
system.cpu.icache.ReadReq_miss_latency::cpu.inst     47012000                       # number of ReadReq miss cycles
system.cpu.icache.ReadReq_miss_latency::total     47012000                       # number of ReadReq miss cycles
system.cpu.icache.demand_miss_latency::cpu.inst     47012000                       # number of demand (read+write) miss cycles
system.cpu.icache.demand_miss_latency::total     47012000                       # number of demand (read+write) miss cycles
system.cpu.icache.overall_miss_latency::cpu.inst     47012000                       # number of overall miss cycles
system.cpu.icache.overall_miss_latency::total     47012000                       # number of overall miss cycles
system.cpu.icache.ReadReq_accesses::cpu.inst    740208246                       # number of ReadReq accesses(hits+misses)
system.cpu.icache.ReadReq_accesses::total    740208246                       # number of ReadReq accesses(hits+misses)
system.cpu.icache.demand_accesses::cpu.inst    740208246                       # number of demand (read+write) accesses
system.cpu.icache.demand_accesses::total    740208246                       # number of demand (read+write) accesses
system.cpu.icache.overall_accesses::cpu.inst    740208246                       # number of overall (read+write) accesses
system.cpu.icache.overall_accesses::total    740208246                       # number of overall (read+write) accesses
system.cpu.icache.ReadReq_miss_rate::cpu.inst     0.000001                       # miss rate for ReadReq accesses
system.cpu.icache.ReadReq_miss_rate::total     0.000001                       # miss rate for ReadReq accesses
system.cpu.icache.demand_miss_rate::cpu.inst     0.000001                       # miss rate for demand accesses
system.cpu.icache.demand_miss_rate::total     0.000001                       # miss rate for demand accesses
system.cpu.icache.overall_miss_rate::cpu.inst     0.000001                       # miss rate for overall accesses
system.cpu.icache.overall_miss_rate::total     0.000001                       # miss rate for overall accesses
system.cpu.icache.ReadReq_avg_miss_latency::cpu.inst 86102.564103                       # average ReadReq miss latency
system.cpu.icache.ReadReq_avg_miss_latency::total 86102.564103                       # average ReadReq miss latency
system.cpu.icache.demand_avg_miss_latency::cpu.inst 86102.564103                       # average overall miss latency
system.cpu.icache.demand_avg_miss_latency::total 86102.564103                       # average overall miss latency
system.cpu.icache.overall_avg_miss_latency::cpu.inst 86102.564103                       # average overall miss latency
system.cpu.icache.overall_avg_miss_latency::total 86102.564103                       # average overall miss latency
system.cpu.icache.blocked_cycles::no_mshrs            0                       # number of cycles access was blocked
system.cpu.icache.blocked_cycles::no_targets            0                       # number of cycles access was blocked
system.cpu.icache.blocked::no_mshrs                 0                       # number of cycles access was blocked
system.cpu.icache.blocked::no_targets               0                       # number of cycles access was blocked
system.cpu.icache.avg_blocked_cycles::no_mshrs          nan                       # average number of cycles each access was blocked
system.cpu.icache.avg_blocked_cycles::no_targets          nan                       # average number of cycles each access was blocked
system.cpu.icache.writebacks::writebacks           10                       # number of writebacks
system.cpu.icache.writebacks::total                10                       # number of writebacks
system.cpu.icache.ReadReq_mshr_misses::cpu.inst          546                       # number of ReadReq MSHR misses
system.cpu.icache.ReadReq_mshr_misses::total          546                       # number of ReadReq MSHR misses
system.cpu.icache.demand_mshr_misses::cpu.inst          546                       # number of demand (read+write) MSHR misses
system.cpu.icache.demand_mshr_misses::total          546                       # number of demand (read+write) MSHR misses
system.cpu.icache.overall_mshr_misses::cpu.inst          546                       # number of overall MSHR misses
system.cpu.icache.overall_mshr_misses::total          546                       # number of overall MSHR misses
system.cpu.icache.ReadReq_mshr_miss_latency::cpu.inst     46466000                       # number of ReadReq MSHR miss cycles
system.cpu.icache.ReadReq_mshr_miss_latency::total     46466000                       # number of ReadReq MSHR miss cycles
system.cpu.icache.demand_mshr_miss_latency::cpu.inst     46466000                       # number of demand (read+write) MSHR miss cycles
system.cpu.icache.demand_mshr_miss_latency::total     46466000                       # number of demand (read+write) MSHR miss cycles
system.cpu.icache.overall_mshr_miss_latency::cpu.inst     46466000                       # number of overall MSHR miss cycles
system.cpu.icache.overall_mshr_miss_latency::total     46466000                       # number of overall MSHR miss cycles
system.cpu.icache.ReadReq_mshr_miss_rate::cpu.inst     0.000001                       # mshr miss rate for ReadReq accesses
system.cpu.icache.ReadReq_mshr_miss_rate::total     0.000001                       # mshr miss rate for ReadReq accesses
system.cpu.icache.demand_mshr_miss_rate::cpu.inst     0.000001                       # mshr miss rate for demand accesses
system.cpu.icache.demand_mshr_miss_rate::total     0.000001                       # mshr miss rate for demand accesses
system.cpu.icache.overall_mshr_miss_rate::cpu.inst     0.000001                       # mshr miss rate for overall accesses
system.cpu.icache.overall_mshr_miss_rate::total     0.000001                       # mshr miss rate for overall accesses
system.cpu.icache.ReadReq_avg_mshr_miss_latency::cpu.inst 85102.564103                       # average ReadReq mshr miss latency
system.cpu.icache.ReadReq_avg_mshr_miss_latency::total 85102.564103                       # average ReadReq mshr miss latency
system.cpu.icache.demand_avg_mshr_miss_latency::cpu.inst 85102.564103                       # average overall mshr miss latency
system.cpu.icache.demand_avg_mshr_miss_latency::total 85102.564103                       # average overall mshr miss latency
system.cpu.icache.overall_avg_mshr_miss_latency::cpu.inst 85102.564103                       # average overall mshr miss latency
system.cpu.icache.overall_avg_mshr_miss_latency::total 85102.564103                       # average overall mshr miss latency
system.cpu.itb_walker_cache.tags.pwrStateResidencyTicks::UNDEFINED 1581627388500                       # Cumulative time (in ticks) in various power states
system.cpu.itb_walker_cache.tags.replacements            0                       # number of replacements
system.cpu.itb_walker_cache.tags.tagsinuse            0                       # Cycle average of tags in use
system.cpu.itb_walker_cache.tags.total_refs            0                       # Total number of references to valid blocks.
system.cpu.itb_walker_cache.tags.sampled_refs            0                       # Sample count of references to valid blocks.
system.cpu.itb_walker_cache.tags.avg_refs          nan                       # Average number of references to valid blocks.
system.cpu.itb_walker_cache.tags.warmup_cycle            0                       # Cycle when the warmup percentage was hit.
system.cpu.itb_walker_cache.tags.tag_accesses            0                       # Number of tag accesses
system.cpu.itb_walker_cache.tags.data_accesses            0                       # Number of data accesses
system.cpu.itb_walker_cache.pwrStateResidencyTicks::UNDEFINED 1581627388500                       # Cumulative time (in ticks) in various power states
system.cpu.itb_walker_cache.blocked_cycles::no_mshrs            0                       # number of cycles access was blocked
system.cpu.itb_walker_cache.blocked_cycles::no_targets            0                       # number of cycles access was blocked
system.cpu.itb_walker_cache.blocked::no_mshrs            0                       # number of cycles access was blocked
system.cpu.itb_walker_cache.blocked::no_targets            0                       # number of cycles access was blocked
system.cpu.itb_walker_cache.avg_blocked_cycles::no_mshrs          nan                       # average number of cycles each access was blocked
system.cpu.itb_walker_cache.avg_blocked_cycles::no_targets          nan                       # average number of cycles each access was blocked
system.l2.tags.pwrStateResidencyTicks::UNDEFINED 1581627388500                       # Cumulative time (in ticks) in various power states
system.l2.tags.replacements                   7131516                       # number of replacements
system.l2.tags.tagsinuse                 16366.910551                       # Cycle average of tags in use
system.l2.tags.total_refs                     7174405                       # Total number of references to valid blocks.
system.l2.tags.sampled_refs                   7147900                       # Sample count of references to valid blocks.
system.l2.tags.avg_refs                      1.003708                       # Average number of references to valid blocks.
system.l2.tags.warmup_cycle                3454595000                       # Cycle when the warmup percentage was hit.
system.l2.tags.occ_blocks::writebacks        0.037636                       # Average occupied blocks per requestor
system.l2.tags.occ_blocks::cpu.inst          1.393346                       # Average occupied blocks per requestor
system.l2.tags.occ_blocks::cpu.data      16365.479569                       # Average occupied blocks per requestor
system.l2.tags.occ_percent::writebacks       0.000002                       # Average percentage of cache occupancy
system.l2.tags.occ_percent::cpu.inst         0.000085                       # Average percentage of cache occupancy
system.l2.tags.occ_percent::cpu.data         0.998870                       # Average percentage of cache occupancy
system.l2.tags.occ_percent::total            0.998957                       # Average percentage of cache occupancy
system.l2.tags.occ_task_id_blocks::1024         16384                       # Occupied blocks per task id
system.l2.tags.age_task_id_blocks_1024::2           45                       # Occupied blocks per task id
system.l2.tags.age_task_id_blocks_1024::3         6064                       # Occupied blocks per task id
system.l2.tags.age_task_id_blocks_1024::4        10275                       # Occupied blocks per task id
system.l2.tags.occ_task_id_percent::1024            1                       # Percentage of cache occupancy per task id
system.l2.tags.tag_accesses                  64437144                       # Number of tag accesses
system.l2.tags.data_accesses                 64437144                       # Number of data accesses
system.l2.pwrStateResidencyTicks::UNDEFINED 1581627388500                       # Cumulative time (in ticks) in various power states
system.l2.WritebackDirty_hits::writebacks      7145440                       # number of WritebackDirty hits
system.l2.WritebackDirty_hits::total          7145440                       # number of WritebackDirty hits
system.l2.WritebackClean_hits::writebacks           10                       # number of WritebackClean hits
system.l2.WritebackClean_hits::total               10                       # number of WritebackClean hits
system.l2.ReadExReq_hits::cpu.data                113                       # number of ReadExReq hits
system.l2.ReadExReq_hits::total                   113                       # number of ReadExReq hits
system.l2.ReadCleanReq_hits::cpu.inst               1                       # number of ReadCleanReq hits
system.l2.ReadCleanReq_hits::total                  1                       # number of ReadCleanReq hits
system.l2.ReadSharedReq_hits::cpu.data          14442                       # number of ReadSharedReq hits
system.l2.ReadSharedReq_hits::total             14442                       # number of ReadSharedReq hits
system.l2.demand_hits::cpu.inst                     1                       # number of demand (read+write) hits
system.l2.demand_hits::cpu.data                 14555                       # number of demand (read+write) hits
system.l2.demand_hits::total                    14556                       # number of demand (read+write) hits
system.l2.overall_hits::cpu.inst                    1                       # number of overall hits
system.l2.overall_hits::cpu.data                14555                       # number of overall hits
system.l2.overall_hits::total                   14556                       # number of overall hits
system.l2.ReadExReq_misses::cpu.data          6700133                       # number of ReadExReq misses
system.l2.ReadExReq_misses::total             6700133                       # number of ReadExReq misses
system.l2.ReadCleanReq_misses::cpu.inst           545                       # number of ReadCleanReq misses
system.l2.ReadCleanReq_misses::total              545                       # number of ReadCleanReq misses
system.l2.ReadSharedReq_misses::cpu.data       447214                       # number of ReadSharedReq misses
system.l2.ReadSharedReq_misses::total          447214                       # number of ReadSharedReq misses
system.l2.demand_misses::cpu.inst                 545                       # number of demand (read+write) misses
system.l2.demand_misses::cpu.data             7147347                       # number of demand (read+write) misses
system.l2.demand_misses::total                7147892                       # number of demand (read+write) misses
system.l2.overall_misses::cpu.inst                545                       # number of overall misses
system.l2.overall_misses::cpu.data            7147347                       # number of overall misses
system.l2.overall_misses::total               7147892                       # number of overall misses
system.l2.ReadExReq_miss_latency::cpu.data 574713430000                       # number of ReadExReq miss cycles
system.l2.ReadExReq_miss_latency::total  574713430000                       # number of ReadExReq miss cycles
system.l2.ReadCleanReq_miss_latency::cpu.inst     45633500                       # number of ReadCleanReq miss cycles
system.l2.ReadCleanReq_miss_latency::total     45633500                       # number of ReadCleanReq miss cycles
system.l2.ReadSharedReq_miss_latency::cpu.data  39621176500                       # number of ReadSharedReq miss cycles
system.l2.ReadSharedReq_miss_latency::total  39621176500                       # number of ReadSharedReq miss cycles
system.l2.demand_miss_latency::cpu.inst      45633500                       # number of demand (read+write) miss cycles
system.l2.demand_miss_latency::cpu.data  614334606500                       # number of demand (read+write) miss cycles
system.l2.demand_miss_latency::total     614380240000                       # number of demand (read+write) miss cycles
system.l2.overall_miss_latency::cpu.inst     45633500                       # number of overall miss cycles
system.l2.overall_miss_latency::cpu.data 614334606500                       # number of overall miss cycles
system.l2.overall_miss_latency::total    614380240000                       # number of overall miss cycles
system.l2.WritebackDirty_accesses::writebacks      7145440                       # number of WritebackDirty accesses(hits+misses)
system.l2.WritebackDirty_accesses::total      7145440                       # number of WritebackDirty accesses(hits+misses)
system.l2.WritebackClean_accesses::writebacks           10                       # number of WritebackClean accesses(hits+misses)
system.l2.WritebackClean_accesses::total           10                       # number of WritebackClean accesses(hits+misses)
system.l2.ReadExReq_accesses::cpu.data        6700246                       # number of ReadExReq accesses(hits+misses)
system.l2.ReadExReq_accesses::total           6700246                       # number of ReadExReq accesses(hits+misses)
system.l2.ReadCleanReq_accesses::cpu.inst          546                       # number of ReadCleanReq accesses(hits+misses)
system.l2.ReadCleanReq_accesses::total            546                       # number of ReadCleanReq accesses(hits+misses)
system.l2.ReadSharedReq_accesses::cpu.data       461656                       # number of ReadSharedReq accesses(hits+misses)
system.l2.ReadSharedReq_accesses::total        461656                       # number of ReadSharedReq accesses(hits+misses)
system.l2.demand_accesses::cpu.inst               546                       # number of demand (read+write) accesses
system.l2.demand_accesses::cpu.data           7161902                       # number of demand (read+write) accesses
system.l2.demand_accesses::total              7162448                       # number of demand (read+write) accesses
system.l2.overall_accesses::cpu.inst              546                       # number of overall (read+write) accesses
system.l2.overall_accesses::cpu.data          7161902                       # number of overall (read+write) accesses
system.l2.overall_accesses::total             7162448                       # number of overall (read+write) accesses
system.l2.ReadExReq_miss_rate::cpu.data      0.999983                       # miss rate for ReadExReq accesses
system.l2.ReadExReq_miss_rate::total         0.999983                       # miss rate for ReadExReq accesses
system.l2.ReadCleanReq_miss_rate::cpu.inst     0.998168                       # miss rate for ReadCleanReq accesses
system.l2.ReadCleanReq_miss_rate::total      0.998168                       # miss rate for ReadCleanReq accesses
system.l2.ReadSharedReq_miss_rate::cpu.data     0.968717                       # miss rate for ReadSharedReq accesses
system.l2.ReadSharedReq_miss_rate::total     0.968717                       # miss rate for ReadSharedReq accesses
system.l2.demand_miss_rate::cpu.inst         0.998168                       # miss rate for demand accesses
system.l2.demand_miss_rate::cpu.data         0.997968                       # miss rate for demand accesses
system.l2.demand_miss_rate::total            0.997968                       # miss rate for demand accesses
system.l2.overall_miss_rate::cpu.inst        0.998168                       # miss rate for overall accesses
system.l2.overall_miss_rate::cpu.data        0.997968                       # miss rate for overall accesses
system.l2.overall_miss_rate::total           0.997968                       # miss rate for overall accesses
system.l2.ReadExReq_avg_miss_latency::cpu.data 85776.421155                       # average ReadExReq miss latency
system.l2.ReadExReq_avg_miss_latency::total 85776.421155                       # average ReadExReq miss latency
system.l2.ReadCleanReq_avg_miss_latency::cpu.inst 83731.192661                       # average ReadCleanReq miss latency
system.l2.ReadCleanReq_avg_miss_latency::total 83731.192661                       # average ReadCleanReq miss latency
system.l2.ReadSharedReq_avg_miss_latency::cpu.data 88595.563869                       # average ReadSharedReq miss latency
system.l2.ReadSharedReq_avg_miss_latency::total 88595.563869                       # average ReadSharedReq miss latency
system.l2.demand_avg_miss_latency::cpu.inst 83731.192661                       # average overall miss latency
system.l2.demand_avg_miss_latency::cpu.data 85952.816688                       # average overall miss latency
system.l2.demand_avg_miss_latency::total 85952.647298                       # average overall miss latency
system.l2.overall_avg_miss_latency::cpu.inst 83731.192661                       # average overall miss latency
system.l2.overall_avg_miss_latency::cpu.data 85952.816688                       # average overall miss latency
system.l2.overall_avg_miss_latency::total 85952.647298                       # average overall miss latency
system.l2.blocked_cycles::no_mshrs                  0                       # number of cycles access was blocked
system.l2.blocked_cycles::no_targets                0                       # number of cycles access was blocked
system.l2.blocked::no_mshrs                         0                       # number of cycles access was blocked
system.l2.blocked::no_targets                       0                       # number of cycles access was blocked
system.l2.avg_blocked_cycles::no_mshrs            nan                       # average number of cycles each access was blocked
system.l2.avg_blocked_cycles::no_targets          nan                       # average number of cycles each access was blocked
system.l2.writebacks::writebacks              7130870                       # number of writebacks
system.l2.writebacks::total                   7130870                       # number of writebacks
system.l2.CleanEvict_mshr_misses::writebacks            6                       # number of CleanEvict MSHR misses
system.l2.CleanEvict_mshr_misses::total             6                       # number of CleanEvict MSHR misses
system.l2.ReadExReq_mshr_misses::cpu.data      6700133                       # number of ReadExReq MSHR misses
system.l2.ReadExReq_mshr_misses::total        6700133                       # number of ReadExReq MSHR misses
system.l2.ReadCleanReq_mshr_misses::cpu.inst          545                       # number of ReadCleanReq MSHR misses
system.l2.ReadCleanReq_mshr_misses::total          545                       # number of ReadCleanReq MSHR misses
system.l2.ReadSharedReq_mshr_misses::cpu.data       447214                       # number of ReadSharedReq MSHR misses
system.l2.ReadSharedReq_mshr_misses::total       447214                       # number of ReadSharedReq MSHR misses
system.l2.demand_mshr_misses::cpu.inst            545                       # number of demand (read+write) MSHR misses
system.l2.demand_mshr_misses::cpu.data        7147347                       # number of demand (read+write) MSHR misses
system.l2.demand_mshr_misses::total           7147892                       # number of demand (read+write) MSHR misses
system.l2.overall_mshr_misses::cpu.inst           545                       # number of overall MSHR misses
system.l2.overall_mshr_misses::cpu.data       7147347                       # number of overall MSHR misses
system.l2.overall_mshr_misses::total          7147892                       # number of overall MSHR misses
system.l2.ReadExReq_mshr_miss_latency::cpu.data 507712100000                       # number of ReadExReq MSHR miss cycles
system.l2.ReadExReq_mshr_miss_latency::total 507712100000                       # number of ReadExReq MSHR miss cycles
system.l2.ReadCleanReq_mshr_miss_latency::cpu.inst     40183500                       # number of ReadCleanReq MSHR miss cycles
system.l2.ReadCleanReq_mshr_miss_latency::total     40183500                       # number of ReadCleanReq MSHR miss cycles
system.l2.ReadSharedReq_mshr_miss_latency::cpu.data  35149036500                       # number of ReadSharedReq MSHR miss cycles
system.l2.ReadSharedReq_mshr_miss_latency::total  35149036500                       # number of ReadSharedReq MSHR miss cycles
system.l2.demand_mshr_miss_latency::cpu.inst     40183500                       # number of demand (read+write) MSHR miss cycles
system.l2.demand_mshr_miss_latency::cpu.data 542861136500                       # number of demand (read+write) MSHR miss cycles
system.l2.demand_mshr_miss_latency::total 542901320000                       # number of demand (read+write) MSHR miss cycles
system.l2.overall_mshr_miss_latency::cpu.inst     40183500                       # number of overall MSHR miss cycles
system.l2.overall_mshr_miss_latency::cpu.data 542861136500                       # number of overall MSHR miss cycles
system.l2.overall_mshr_miss_latency::total 542901320000                       # number of overall MSHR miss cycles
system.l2.CleanEvict_mshr_miss_rate::writebacks          inf                       # mshr miss rate for CleanEvict accesses
system.l2.CleanEvict_mshr_miss_rate::total          inf                       # mshr miss rate for CleanEvict accesses
system.l2.ReadExReq_mshr_miss_rate::cpu.data     0.999983                       # mshr miss rate for ReadExReq accesses
system.l2.ReadExReq_mshr_miss_rate::total     0.999983                       # mshr miss rate for ReadExReq accesses
system.l2.ReadCleanReq_mshr_miss_rate::cpu.inst     0.998168                       # mshr miss rate for ReadCleanReq accesses
system.l2.ReadCleanReq_mshr_miss_rate::total     0.998168                       # mshr miss rate for ReadCleanReq accesses
system.l2.ReadSharedReq_mshr_miss_rate::cpu.data     0.968717                       # mshr miss rate for ReadSharedReq accesses
system.l2.ReadSharedReq_mshr_miss_rate::total     0.968717                       # mshr miss rate for ReadSharedReq accesses
system.l2.demand_mshr_miss_rate::cpu.inst     0.998168                       # mshr miss rate for demand accesses
system.l2.demand_mshr_miss_rate::cpu.data     0.997968                       # mshr miss rate for demand accesses
system.l2.demand_mshr_miss_rate::total       0.997968                       # mshr miss rate for demand accesses
system.l2.overall_mshr_miss_rate::cpu.inst     0.998168                       # mshr miss rate for overall accesses
system.l2.overall_mshr_miss_rate::cpu.data     0.997968                       # mshr miss rate for overall accesses
system.l2.overall_mshr_miss_rate::total      0.997968                       # mshr miss rate for overall accesses
system.l2.ReadExReq_avg_mshr_miss_latency::cpu.data 75776.421155                       # average ReadExReq mshr miss latency
system.l2.ReadExReq_avg_mshr_miss_latency::total 75776.421155                       # average ReadExReq mshr miss latency
system.l2.ReadCleanReq_avg_mshr_miss_latency::cpu.inst 73731.192661                       # average ReadCleanReq mshr miss latency
system.l2.ReadCleanReq_avg_mshr_miss_latency::total 73731.192661                       # average ReadCleanReq mshr miss latency
system.l2.ReadSharedReq_avg_mshr_miss_latency::cpu.data 78595.563869                       # average ReadSharedReq mshr miss latency
system.l2.ReadSharedReq_avg_mshr_miss_latency::total 78595.563869                       # average ReadSharedReq mshr miss latency
system.l2.demand_avg_mshr_miss_latency::cpu.inst 73731.192661                       # average overall mshr miss latency
system.l2.demand_avg_mshr_miss_latency::cpu.data 75952.816688                       # average overall mshr miss latency
system.l2.demand_avg_mshr_miss_latency::total 75952.647298                       # average overall mshr miss latency
system.l2.overall_avg_mshr_miss_latency::cpu.inst 73731.192661                       # average overall mshr miss latency
system.l2.overall_avg_mshr_miss_latency::cpu.data 75952.816688                       # average overall mshr miss latency
system.l2.overall_avg_mshr_miss_latency::total 75952.647298                       # average overall mshr miss latency
system.membus.snoop_filter.tot_requests      14278857                       # Total number of requests made to the snoop filter.
system.membus.snoop_filter.hit_single_requests      7130965                       # Number of requests hitting in the snoop filter with a single holder of the requested data.
system.membus.snoop_filter.hit_multi_requests            0                       # Number of requests hitting in the snoop filter with multiple (>1) holders of the requested data.
system.membus.snoop_filter.tot_snoops               0                       # Total number of snoops made to the snoop filter.
system.membus.snoop_filter.hit_single_snoops            0                       # Number of snoops hitting in the snoop filter with a single holder of the requested data.
system.membus.snoop_filter.hit_multi_snoops            0                       # Number of snoops hitting in the snoop filter with multiple (>1) holders of the requested data.
system.membus.pwrStateResidencyTicks::UNDEFINED 1581627388500                       # Cumulative time (in ticks) in various power states
system.membus.trans_dist::ReadResp             447759                       # Transaction distribution
system.membus.trans_dist::WritebackDirty      7130870                       # Transaction distribution
system.membus.trans_dist::CleanEvict               95                       # Transaction distribution
system.membus.trans_dist::ReadExReq           6700133                       # Transaction distribution
system.membus.trans_dist::ReadExResp          6700133                       # Transaction distribution
system.membus.trans_dist::ReadSharedReq        447759                       # Transaction distribution
system.membus.pkt_count_system.l2.mem_side::system.mem_ctrls.port     21426749                       # Packet count per connected master and slave (bytes)
system.membus.pkt_count_system.l2.mem_side::total     21426749                       # Packet count per connected master and slave (bytes)
system.membus.pkt_count::total               21426749                       # Packet count per connected master and slave (bytes)
system.membus.pkt_size_system.l2.mem_side::system.mem_ctrls.port    913840768                       # Cumulative packet size per connected master and slave (bytes)
system.membus.pkt_size_system.l2.mem_side::total    913840768                       # Cumulative packet size per connected master and slave (bytes)
system.membus.pkt_size::total               913840768                       # Cumulative packet size per connected master and slave (bytes)
system.membus.snoops                                0                       # Total snoops (count)
system.membus.snoopTraffic                          0                       # Total snoop traffic (bytes)
system.membus.snoop_fanout::samples           7147892                       # Request fanout histogram
system.membus.snoop_fanout::mean                    0                       # Request fanout histogram
system.membus.snoop_fanout::stdev                   0                       # Request fanout histogram
system.membus.snoop_fanout::underflows              0      0.00%      0.00% # Request fanout histogram
system.membus.snoop_fanout::0                 7147892    100.00%    100.00% # Request fanout histogram
system.membus.snoop_fanout::1                       0      0.00%    100.00% # Request fanout histogram
system.membus.snoop_fanout::overflows               0      0.00%    100.00% # Request fanout histogram
system.membus.snoop_fanout::min_value               0                       # Request fanout histogram
system.membus.snoop_fanout::max_value               0                       # Request fanout histogram
system.membus.snoop_fanout::total             7147892                       # Request fanout histogram
system.membus.reqLayer2.occupancy         42802341000                       # Layer occupancy (ticks)
system.membus.reqLayer2.utilization               2.7                       # Layer utilization (%)
system.membus.respLayer1.occupancy        37632015750                       # Layer occupancy (ticks)
system.membus.respLayer1.utilization              2.4                       # Layer utilization (%)
system.tol2bus.snoop_filter.tot_requests     14322312                       # Total number of requests made to the snoop filter.
system.tol2bus.snoop_filter.hit_single_requests      7159864                       # Number of requests hitting in the snoop filter with a single holder of the requested data.
system.tol2bus.snoop_filter.hit_multi_requests            1                       # Number of requests hitting in the snoop filter with multiple (>1) holders of the requested data.
system.tol2bus.snoop_filter.tot_snoops            557                       # Total number of snoops made to the snoop filter.
system.tol2bus.snoop_filter.hit_single_snoops          557                       # Number of snoops hitting in the snoop filter with a single holder of the requested data.
system.tol2bus.snoop_filter.hit_multi_snoops            0                       # Number of snoops hitting in the snoop filter with multiple (>1) holders of the requested data.
system.tol2bus.pwrStateResidencyTicks::UNDEFINED 1581627388500                       # Cumulative time (in ticks) in various power states
system.tol2bus.trans_dist::ReadResp            462202                       # Transaction distribution
system.tol2bus.trans_dist::WritebackDirty     14276310                       # Transaction distribution
system.tol2bus.trans_dist::WritebackClean           10                       # Transaction distribution
system.tol2bus.trans_dist::CleanEvict           15060                       # Transaction distribution
system.tol2bus.trans_dist::ReadExReq          6700246                       # Transaction distribution
system.tol2bus.trans_dist::ReadExResp         6700246                       # Transaction distribution
system.tol2bus.trans_dist::ReadCleanReq           546                       # Transaction distribution
system.tol2bus.trans_dist::ReadSharedReq       461656                       # Transaction distribution
system.tol2bus.pkt_count_system.cpu.icache.mem_side::system.l2.cpu_side         1102                       # Packet count per connected master and slave (bytes)
system.tol2bus.pkt_count_system.cpu.dcache.mem_side::system.l2.cpu_side     21483658                       # Packet count per connected master and slave (bytes)
system.tol2bus.pkt_count::total              21484760                       # Packet count per connected master and slave (bytes)
system.tol2bus.pkt_size_system.cpu.icache.mem_side::system.l2.cpu_side        35584                       # Cumulative packet size per connected master and slave (bytes)
system.tol2bus.pkt_size_system.cpu.dcache.mem_side::system.l2.cpu_side    915669888                       # Cumulative packet size per connected master and slave (bytes)
system.tol2bus.pkt_size::total              915705472                       # Cumulative packet size per connected master and slave (bytes)
system.tol2bus.snoops                         7131516                       # Total snoops (count)
system.tol2bus.snoopTraffic                 456375680                       # Total snoop traffic (bytes)
system.tol2bus.snoop_fanout::samples         14293964                       # Request fanout histogram
system.tol2bus.snoop_fanout::mean            0.000039                       # Request fanout histogram
system.tol2bus.snoop_fanout::stdev           0.006248                       # Request fanout histogram
system.tol2bus.snoop_fanout::underflows             0      0.00%      0.00% # Request fanout histogram
system.tol2bus.snoop_fanout::0               14293406    100.00%    100.00% # Request fanout histogram
system.tol2bus.snoop_fanout::1                    558      0.00%    100.00% # Request fanout histogram
system.tol2bus.snoop_fanout::2                      0      0.00%    100.00% # Request fanout histogram
system.tol2bus.snoop_fanout::3                      0      0.00%    100.00% # Request fanout histogram
system.tol2bus.snoop_fanout::4                      0      0.00%    100.00% # Request fanout histogram
system.tol2bus.snoop_fanout::overflows              0      0.00%    100.00% # Request fanout histogram
system.tol2bus.snoop_fanout::min_value              0                       # Request fanout histogram
system.tol2bus.snoop_fanout::max_value              1                       # Request fanout histogram
system.tol2bus.snoop_fanout::total           14293964                       # Request fanout histogram
system.tol2bus.reqLayer0.occupancy        14306606000                       # Layer occupancy (ticks)
system.tol2bus.reqLayer0.utilization              0.9                       # Layer utilization (%)
system.tol2bus.respLayer0.occupancy            819000                       # Layer occupancy (ticks)
system.tol2bus.respLayer0.utilization             0.0                       # Layer utilization (%)
system.tol2bus.respLayer1.occupancy       10742853000                       # Layer occupancy (ticks)
system.tol2bus.respLayer1.utilization             0.7                       # Layer utilization (%)

---------- End Simulation Statistics   ----------
